<?xml version="1.0" encoding="UTF-8"?>

<!-- generated on 2023-02-27 16:42:50.576091 by osmWebWizard.py v1_16_0+0000-94ec4c6cd72
<configuration>
    <begin value="0"/>
    <end value="3600"/>
    <fringe-factor value="2"/>
    <fringe-start-attributes value="departSpeed=&quot;max&quot;"/>
    <insertion-density value="20.0"/>
    <max-distance value="1200.0"/>
    <net-file value="C:\Users\bestg\Sumo\2023-02-27-16-42-36\osm.net.xml.gz"/>
    <remove-loops value="True"/>
    <route-file value="C:\Users\bestg\Sumo\2023-02-27-16-42-36\osm.motorcycle.rou.xml"/>
    <trip-attributes value="departLane=&quot;best&quot;"/>
    <output-trip-file value="C:\Users\bestg\Sumo\2023-02-27-16-42-36\osm.motorcycle.trips.xml"/>
    <prefix value="motorcycle"/>
    <validate value="True"/>
    <vclass value="motorcycle"/>
    <vehicle-class value="motorcycle"/>
</configuration>
-->

<!-- generated on 2023-02-27 16:42:49 by Eclipse SUMO duarouter Version 1.16.0
<configuration xmlns:xsi="http://www.w3.org/2001/XMLSchema-instance" xsi:noNamespaceSchemaLocation="http://sumo.dlr.de/xsd/duarouterConfiguration.xsd">

    <input>
        <net-file value="C:\Users\bestg\Sumo\2023-02-27-16-42-36\osm.net.xml.gz"/>
        <route-files value="C:\Users\bestg\Sumo\2023-02-27-16-42-36\osm.motorcycle.trips.xml"/>
    </input>

    <output>
        <output-file value="C:\Users\bestg\Sumo\2023-02-27-16-42-36\osm.motorcycle.trips.xml.tmp"/>
        <alternatives-output value="NUL"/>
        <write-trips value="true"/>
    </output>

    <processing>
        <remove-loops value="true"/>
    </processing>

    <time>
        <begin value="0"/>
        <end value="3600"/>
    </time>

    <report>
        <no-warnings value="true"/>
        <ignore-errors value="true"/>
        <no-step-log value="true"/>
    </report>

</configuration>
-->

<routes xmlns:xsi="http://www.w3.org/2001/XMLSchema-instance" xsi:noNamespaceSchemaLocation="http://sumo.dlr.de/xsd/routes_file.xsd">
    <vType id="motorcycle_motorcycle" vClass="motorcycle"/>
    <trip id="motorcycle0" type="motorcycle_motorcycle" depart="0.00" departLane="best" from="278036591" to="138507645#0"/>
    <trip id="motorcycle1" type="motorcycle_motorcycle" depart="1.04" departLane="best" from="666272207#0" to="-381428130#16"/>
    <trip id="motorcycle3" type="motorcycle_motorcycle" depart="3.13" departLane="best" from="-699625397#1" to="-195668679#0"/>
    <trip id="motorcycle4" type="motorcycle_motorcycle" depart="4.18" departLane="best" from="-146293961#1" to="-29417050#2"/>
    <trip id="motorcycle5" type="motorcycle_motorcycle" depart="5.22" departLane="best" from="689960225#5" to="1131108836"/>
    <trip id="motorcycle6" type="motorcycle_motorcycle" depart="6.27" departLane="best" from="689960225#0" to="42505008#0"/>
    <trip id="motorcycle7" type="motorcycle_motorcycle" depart="7.31" departLane="best" from="19822220#0" to="-199923198#2"/>
    <trip id="motorcycle8" type="motorcycle_motorcycle" depart="8.35" departLane="best" from="697025666#0" to="24028276#5"/>
    <trip id="motorcycle9" type="motorcycle_motorcycle" depart="9.40" departLane="best" from="694361371" to="24028666#0"/>
    <trip id="motorcycle10" type="motorcycle_motorcycle" depart="10.44" departLane="best" from="-697842142" to="23025882#13"/>
    <trip id="motorcycle11" type="motorcycle_motorcycle" depart="11.49" departLane="best" from="-266824844" to="-79890270#1"/>
    <trip id="motorcycle12" type="motorcycle_motorcycle" depart="12.53" departLane="best" from="-79895493#2" to="-342886913#2"/>
    <trip id="motorcycle13" type="motorcycle_motorcycle" depart="13.58" departLane="best" from="-58566632#6" to="79895526#4"/>
    <trip id="motorcycle14" type="motorcycle_motorcycle" depart="14.62" departLane="best" from="-24028719#10" to="575408675#4"/>
    <trip id="motorcycle16" type="motorcycle_motorcycle" depart="16.71" departLane="best" from="927524288" to="-278036591"/>
    <trip id="motorcycle17" type="motorcycle_motorcycle" depart="17.75" departLane="best" from="-21261766#0" to="-381428131#0"/>
    <trip id="motorcycle19" type="motorcycle_motorcycle" depart="19.84" departLane="best" from="-69559549" to="58566632#2"/>
    <trip id="motorcycle20" type="motorcycle_motorcycle" depart="20.89" departLane="best" from="381425895#0" to="-90447839#1"/>
    <trip id="motorcycle21" type="motorcycle_motorcycle" depart="21.93" departLane="best" from="698774282#1" to="690496990#1"/>
    <trip id="motorcycle22" type="motorcycle_motorcycle" depart="22.98" departLane="best" from="692291877#0" to="138506531#1"/>
    <trip id="motorcycle23" type="motorcycle_motorcycle" depart="24.02" departLane="best" from="-58306933#3" to="-529378760"/>
    <trip id="motorcycle24" type="motorcycle_motorcycle" depart="25.06" departLane="best" from="-90564611#2" to="381427099"/>
    <trip id="motorcycle25" type="motorcycle_motorcycle" depart="26.11" departLane="best" from="-948889608" to="-189631723#2"/>
    <trip id="motorcycle26" type="motorcycle_motorcycle" depart="27.15" departLane="best" from="689207001" to="-927524288"/>
    <trip id="motorcycle27" type="motorcycle_motorcycle" depart="28.20" departLane="best" from="90564614#1" to="-381427100"/>
    <trip id="motorcycle31" type="motorcycle_motorcycle" depart="32.37" departLane="best" from="689773218#5" to="90564599"/>
    <trip id="motorcycle33" type="motorcycle_motorcycle" depart="34.46" departLane="best" from="-24028408#1" to="-233745262"/>
    <trip id="motorcycle34" type="motorcycle_motorcycle" depart="35.51" departLane="best" from="1028906331#0" to="697831506#0"/>
    <trip id="motorcycle35" type="motorcycle_motorcycle" depart="36.55" departLane="best" from="698783952" to="69559528"/>
    <trip id="motorcycle36" type="motorcycle_motorcycle" depart="37.60" departLane="best" from="161536931" to="209323881#0"/>
    <trip id="motorcycle38" type="motorcycle_motorcycle" depart="39.68" departLane="best" from="927526272" to="-381425895#2"/>
    <trip id="motorcycle39" type="motorcycle_motorcycle" depart="40.73" departLane="best" from="699556701#4" to="233738948#0"/>
    <trip id="motorcycle40" type="motorcycle_motorcycle" depart="41.77" departLane="best" from="-381428132" to="-381428130#10"/>
    <trip id="motorcycle41" type="motorcycle_motorcycle" depart="42.82" departLane="best" from="79895526#2" to="-22980582#0"/>
    <trip id="motorcycle42" type="motorcycle_motorcycle" depart="43.86" departLane="best" from="-199923198#3" to="964507880"/>
    <trip id="motorcycle43" type="motorcycle_motorcycle" depart="44.91" departLane="best" from="-927270647" to="-199924293#2"/>
    <trip id="motorcycle44" type="motorcycle_motorcycle" depart="45.95" departLane="best" from="-278039836#0" to="-117177758"/>
    <trip id="motorcycle45" type="motorcycle_motorcycle" depart="46.99" departLane="best" from="927524288" to="688938074#1"/>
    <trip id="motorcycle46" type="motorcycle_motorcycle" depart="48.04" departLane="best" from="-1132699456" to="697849397"/>
    <trip id="motorcycle47" type="motorcycle_motorcycle" depart="49.08" departLane="best" from="90564612#1" to="79890303#0"/>
    <trip id="motorcycle48" type="motorcycle_motorcycle" depart="50.13" departLane="best" from="697182261#2" to="24028408#2"/>
    <trip id="motorcycle49" type="motorcycle_motorcycle" depart="51.17" departLane="best" from="170343045#6" to="381425895#6"/>
    <trip id="motorcycle50" type="motorcycle_motorcycle" depart="52.22" departLane="best" from="58306933#4" to="689167563"/>
    <trip id="motorcycle51" type="motorcycle_motorcycle" depart="53.26" departLane="best" from="138506508#0" to="-927524289"/>
    <trip id="motorcycle52" type="motorcycle_motorcycle" depart="54.31" departLane="best" from="-212268952#1" to="54781329"/>
    <trip id="motorcycle53" type="motorcycle_motorcycle" depart="55.35" departLane="best" from="90564612#1" to="-23025882#5"/>
    <trip id="motorcycle54" type="motorcycle_motorcycle" depart="56.39" departLane="best" from="199989363#0" to="641451997"/>
    <trip id="motorcycle55" type="motorcycle_motorcycle" depart="57.44" departLane="best" from="170343070" to="-23311477#3"/>
    <trip id="motorcycle56" type="motorcycle_motorcycle" depart="58.48" departLane="best" from="-24028276#4" to="-90564609#1"/>
    <trip id="motorcycle57" type="motorcycle_motorcycle" depart="59.53" departLane="best" from="-193160101#2" to="-266824835#4"/>
    <trip id="motorcycle58" type="motorcycle_motorcycle" depart="60.57" departLane="best" from="233743272#0" to="381427099"/>
    <trip id="motorcycle59" type="motorcycle_motorcycle" depart="61.62" departLane="best" from="699563648" to="-529106160#2"/>
    <trip id="motorcycle60" type="motorcycle_motorcycle" depart="62.66" departLane="best" from="193288697#0" to="79895526#2"/>
    <trip id="motorcycle61" type="motorcycle_motorcycle" depart="63.70" departLane="best" from="4270622#2" to="-90564609#2"/>
    <trip id="motorcycle62" type="motorcycle_motorcycle" depart="64.75" departLane="best" from="381425897#5" to="690516608#3"/>
    <trip id="motorcycle63" type="motorcycle_motorcycle" depart="65.79" departLane="best" from="69559556#0" to="666272200"/>
    <trip id="motorcycle64" type="motorcycle_motorcycle" depart="66.84" departLane="best" from="189631723#3" to="-138506531#0"/>
    <trip id="motorcycle65" type="motorcycle_motorcycle" depart="67.88" departLane="best" from="-58306933#3" to="-79895500#2"/>
    <trip id="motorcycle66" type="motorcycle_motorcycle" depart="68.93" departLane="best" from="-24028414#1" to="927515582"/>
    <trip id="motorcycle67" type="motorcycle_motorcycle" depart="69.97" departLane="best" from="690516608#2" to="690516608#3"/>
    <trip id="motorcycle68" type="motorcycle_motorcycle" depart="71.01" departLane="best" from="342886913#3" to="808245435#2"/>
    <trip id="motorcycle69" type="motorcycle_motorcycle" depart="72.06" departLane="best" from="209324877" to="212222212#1"/>
    <trip id="motorcycle70" type="motorcycle_motorcycle" depart="73.10" departLane="best" from="-642068053" to="-24028346#3"/>
    <trip id="motorcycle71" type="motorcycle_motorcycle" depart="74.15" departLane="best" from="54780909#0" to="-322606171#1"/>
    <trip id="motorcycle73" type="motorcycle_motorcycle" depart="76.24" departLane="best" from="19822182#5" to="-19822182#6"/>
    <trip id="motorcycle74" type="motorcycle_motorcycle" depart="77.28" departLane="best" from="627946321" to="209771201"/>
    <trip id="motorcycle75" type="motorcycle_motorcycle" depart="78.32" departLane="best" from="-233740169#4" to="-23025882#10"/>
    <trip id="motorcycle76" type="motorcycle_motorcycle" depart="79.37" departLane="best" from="692291875#2" to="-75608981#0"/>
    <trip id="motorcycle77" type="motorcycle_motorcycle" depart="80.41" departLane="best" from="-23025882#15" to="-381427100"/>
    <trip id="motorcycle78" type="motorcycle_motorcycle" depart="81.46" departLane="best" from="75608978#2" to="-342886913#4"/>
    <trip id="motorcycle79" type="motorcycle_motorcycle" depart="82.50" departLane="best" from="697849399#1" to="927149238#0"/>
    <trip id="motorcycle80" type="motorcycle_motorcycle" depart="83.55" departLane="best" from="689773223#0" to="697849399#2"/>
    <trip id="motorcycle81" type="motorcycle_motorcycle" depart="84.59" departLane="best" from="689960226" to="58566632#0"/>
    <trip id="motorcycle82" type="motorcycle_motorcycle" depart="85.63" departLane="best" from="689176059#0" to="209771201"/>
    <trip id="motorcycle83" type="motorcycle_motorcycle" depart="86.68" departLane="best" from="698765556#0" to="697842140#0"/>
    <trip id="motorcycle84" type="motorcycle_motorcycle" depart="87.72" departLane="best" from="381428130#14" to="690496992"/>
    <trip id="motorcycle85" type="motorcycle_motorcycle" depart="88.77" departLane="best" from="138507636#1" to="-283153258"/>
    <trip id="motorcycle86" type="motorcycle_motorcycle" depart="89.81" departLane="best" from="381431264#0" to="697862989"/>
    <trip id="motorcycle87" type="motorcycle_motorcycle" depart="90.86" departLane="best" from="-927171516" to="19822220#1"/>
    <trip id="motorcycle88" type="motorcycle_motorcycle" depart="91.90" departLane="best" from="90564614#0" to="-258519974#1"/>
    <trip id="motorcycle89" type="motorcycle_motorcycle" depart="92.95" departLane="best" from="90564609#3" to="58306933#0"/>
    <trip id="motorcycle92" type="motorcycle_motorcycle" depart="96.08" departLane="best" from="-557105492" to="691529215"/>
    <trip id="motorcycle93" type="motorcycle_motorcycle" depart="97.12" departLane="best" from="-694361375" to="927134034"/>
    <trip id="motorcycle94" type="motorcycle_motorcycle" depart="98.17" departLane="best" from="75608980#1" to="24028532"/>
    <trip id="motorcycle95" type="motorcycle_motorcycle" depart="99.21" departLane="best" from="1028906331#0" to="689018014"/>
    <trip id="motorcycle96" type="motorcycle_motorcycle" depart="100.26" departLane="best" from="322604767" to="-138507652#2"/>
    <trip id="motorcycle97" type="motorcycle_motorcycle" depart="101.30" departLane="best" from="-1132697677" to="381425895#6"/>
    <trip id="motorcycle98" type="motorcycle_motorcycle" depart="102.34" departLane="best" from="-23025882#15" to="-24028543"/>
    <trip id="motorcycle99" type="motorcycle_motorcycle" depart="103.39" departLane="best" from="-927172165" to="258725668"/>
    <trip id="motorcycle101" type="motorcycle_motorcycle" depart="105.48" departLane="best" from="-381425895#5" to="-927524286"/>
    <trip id="motorcycle102" type="motorcycle_motorcycle" depart="106.52" departLane="best" from="699619659#3" to="24028408#3"/>
    <trip id="motorcycle103" type="motorcycle_motorcycle" depart="107.57" departLane="best" from="54781329" to="-189617850#0"/>
    <trip id="motorcycle104" type="motorcycle_motorcycle" depart="108.61" departLane="best" from="730948912" to="-635483486#8"/>
    <trip id="motorcycle105" type="motorcycle_motorcycle" depart="109.65" departLane="best" from="529378762" to="-692291875#0"/>
    <trip id="motorcycle106" type="motorcycle_motorcycle" depart="110.70" departLane="best" from="635483486#0" to="666019829"/>
    <trip id="motorcycle107" type="motorcycle_motorcycle" depart="111.74" departLane="best" from="689200338#0" to="382405859#3"/>
    <trip id="motorcycle108" type="motorcycle_motorcycle" depart="112.79" departLane="best" from="75608980#0" to="666272203#0"/>
    <trip id="motorcycle109" type="motorcycle_motorcycle" depart="113.83" departLane="best" from="-733482222" to="-90564598#2"/>
    <trip id="motorcycle110" type="motorcycle_motorcycle" depart="114.88" departLane="best" from="927509185" to="641451992"/>
    <trip id="motorcycle112" type="motorcycle_motorcycle" depart="116.96" departLane="best" from="-90564614#0" to="24028408#0"/>
    <trip id="motorcycle113" type="motorcycle_motorcycle" depart="118.01" departLane="best" from="-146293961#4" to="-23025882#10"/>
    <trip id="motorcycle114" type="motorcycle_motorcycle" depart="119.05" departLane="best" from="245069159" to="146293961#0"/>
    <trip id="motorcycle115" type="motorcycle_motorcycle" depart="120.10" departLane="best" from="-90564609#0" to="22802886#4"/>
    <trip id="motorcycle116" type="motorcycle_motorcycle" depart="121.14" departLane="best" from="23311477#9" to="138507636#0"/>
    <trip id="motorcycle117" type="motorcycle_motorcycle" depart="122.19" departLane="best" from="381425895#1" to="697842140#0"/>
    <trip id="motorcycle118" type="motorcycle_motorcycle" depart="123.23" departLane="best" from="666272200" to="69559528"/>
    <trip id="motorcycle119" type="motorcycle_motorcycle" depart="124.27" departLane="best" from="975661449" to="-75608978#0"/>
    <trip id="motorcycle120" type="motorcycle_motorcycle" depart="125.32" departLane="best" from="-24028532" to="-24028363#0"/>
    <trip id="motorcycle121" type="motorcycle_motorcycle" depart="126.36" departLane="best" from="-69559532#0" to="381428130#11"/>
    <trip id="motorcycle122" type="motorcycle_motorcycle" depart="127.41" departLane="best" from="90564606" to="-90564609#4"/>
    <trip id="motorcycle123" type="motorcycle_motorcycle" depart="128.45" departLane="best" from="199989363#2" to="688956452#7"/>
    <trip id="motorcycle124" type="motorcycle_motorcycle" depart="129.50" departLane="best" from="697214214#2" to="24028276#0"/>
    <trip id="motorcycle125" type="motorcycle_motorcycle" depart="130.54" departLane="best" from="-22803070#1" to="927173923"/>
    <trip id="motorcycle126" type="motorcycle_motorcycle" depart="131.59" departLane="best" from="689167563" to="-730948911"/>
    <trip id="motorcycle127" type="motorcycle_motorcycle" depart="132.63" departLane="best" from="-927566835" to="79895493#0"/>
    <trip id="motorcycle128" type="motorcycle_motorcycle" depart="133.67" departLane="best" from="697182261#3" to="-691529216#3"/>
    <trip id="motorcycle129" type="motorcycle_motorcycle" depart="134.72" departLane="best" from="635483486#2" to="697814272"/>
    <trip id="motorcycle130" type="motorcycle_motorcycle" depart="135.76" departLane="best" from="-146293961#1" to="24028363#4"/>
    <trip id="motorcycle131" type="motorcycle_motorcycle" depart="136.81" departLane="best" from="697231511" to="-259644271#0"/>
    <trip id="motorcycle132" type="motorcycle_motorcycle" depart="137.85" departLane="best" from="381425895#3" to="689685700#0"/>
    <trip id="motorcycle134" type="motorcycle_motorcycle" depart="139.94" departLane="best" from="-170343049#0" to="688930917"/>
    <trip id="motorcycle135" type="motorcycle_motorcycle" depart="140.98" departLane="best" from="170343051#0" to="689207000"/>
    <trip id="motorcycle136" type="motorcycle_motorcycle" depart="142.03" departLane="best" from="-19822220#1" to="381428130#13"/>
    <trip id="motorcycle137" type="motorcycle_motorcycle" depart="143.07" departLane="best" from="23311477#14" to="154318818"/>
    <trip id="motorcycle138" type="motorcycle_motorcycle" depart="144.12" departLane="best" from="635485290#1" to="-699556696"/>
    <trip id="motorcycle139" type="motorcycle_motorcycle" depart="145.16" departLane="best" from="-557105492" to="-22803019#2"/>
    <trip id="motorcycle140" type="motorcycle_motorcycle" depart="146.21" departLane="best" from="-927149238#1" to="193288697#0"/>
    <trip id="motorcycle141" type="motorcycle_motorcycle" depart="147.25" departLane="best" from="-417623237" to="-22980582#3"/>
    <trip id="motorcycle142" type="motorcycle_motorcycle" depart="148.29" departLane="best" from="698765557#0" to="-23025882#2"/>
    <trip id="motorcycle143" type="motorcycle_motorcycle" depart="149.34" departLane="best" from="148744339#0" to="1131116642"/>
    <trip id="motorcycle144" type="motorcycle_motorcycle" depart="150.38" departLane="best" from="-691529216#3" to="-90564611#3"/>
    <trip id="motorcycle145" type="motorcycle_motorcycle" depart="151.43" departLane="best" from="-22802893#0" to="691529216#5"/>
    <trip id="motorcycle146" type="motorcycle_motorcycle" depart="152.47" departLane="best" from="-927529827" to="22802886#4"/>
    <trip id="motorcycle147" type="motorcycle_motorcycle" depart="153.52" departLane="best" from="324434043" to="24028276#3"/>
    <trip id="motorcycle148" type="motorcycle_motorcycle" depart="154.56" departLane="best" from="-233740171" to="-689012456#1"/>
    <trip id="motorcycle149" type="motorcycle_motorcycle" depart="155.60" departLane="best" from="-381431263#5" to="-460247949"/>
    <trip id="motorcycle150" type="motorcycle_motorcycle" depart="156.65" departLane="best" from="381431263#6" to="-79890281"/>
    <trip id="motorcycle151" type="motorcycle_motorcycle" depart="157.69" departLane="best" from="324619626" to="-79895500#2"/>
    <trip id="motorcycle152" type="motorcycle_motorcycle" depart="158.74" departLane="best" from="-927529827" to="-199989363#1"/>
    <trip id="motorcycle153" type="motorcycle_motorcycle" depart="159.78" departLane="best" from="-29417050#0" to="763787962#0"/>
    <trip id="motorcycle154" type="motorcycle_motorcycle" depart="160.83" departLane="best" from="-24028408#2" to="-692291875#1"/>
    <trip id="motorcycle155" type="motorcycle_motorcycle" depart="161.87" departLane="best" from="689012455#0" to="-22980582#0"/>
    <trip id="motorcycle156" type="motorcycle_motorcycle" depart="162.92" departLane="best" from="90447839#0" to="-170345943#1"/>
    <trip id="motorcycle157" type="motorcycle_motorcycle" depart="163.96" departLane="best" from="-161536932#1" to="101345619#0"/>
    <trip id="motorcycle158" type="motorcycle_motorcycle" depart="165.00" departLane="best" from="19822182#1" to="90564609#3"/>
    <trip id="motorcycle159" type="motorcycle_motorcycle" depart="166.05" departLane="best" from="-69559556#1" to="-23025882#10"/>
    <trip id="motorcycle160" type="motorcycle_motorcycle" depart="167.09" departLane="best" from="-90447868#2" to="975661449"/>
    <trip id="motorcycle161" type="motorcycle_motorcycle" depart="168.14" departLane="best" from="381425897#6" to="635483486#8"/>
    <trip id="motorcycle162" type="motorcycle_motorcycle" depart="169.18" departLane="best" from="-161536932#1" to="666272207#1"/>
    <trip id="motorcycle163" type="motorcycle_motorcycle" depart="170.23" departLane="best" from="-789197903#3" to="-259644271#0"/>
    <trip id="motorcycle165" type="motorcycle_motorcycle" depart="172.31" departLane="best" from="-690496990#0" to="209323881#0"/>
    <trip id="motorcycle166" type="motorcycle_motorcycle" depart="173.36" departLane="best" from="130830301#3" to="690496990#1"/>
    <trip id="motorcycle167" type="motorcycle_motorcycle" depart="174.40" departLane="best" from="697831506#0" to="-90564614#0"/>
    <trip id="motorcycle168" type="motorcycle_motorcycle" depart="175.45" departLane="best" from="276725517" to="-79888969"/>
    <trip id="motorcycle170" type="motorcycle_motorcycle" depart="177.54" departLane="best" from="-688938074#0" to="-322606171#1"/>
    <trip id="motorcycle171" type="motorcycle_motorcycle" depart="178.58" departLane="best" from="-209771201" to="79890305#0"/>
    <trip id="motorcycle172" type="motorcycle_motorcycle" depart="179.62" departLane="best" from="-22803070#1" to="91933305#0"/>
    <trip id="motorcycle174" type="motorcycle_motorcycle" depart="181.71" departLane="best" from="138507636#0" to="22802886#1"/>
    <trip id="motorcycle175" type="motorcycle_motorcycle" depart="182.76" departLane="best" from="543846364" to="-189631723#0"/>
    <trip id="motorcycle176" type="motorcycle_motorcycle" depart="183.80" departLane="best" from="-927152355" to="-464522046"/>
    <trip id="motorcycle177" type="motorcycle_motorcycle" depart="184.85" departLane="best" from="-927172166" to="79895526#1"/>
    <trip id="motorcycle178" type="motorcycle_motorcycle" depart="185.89" departLane="best" from="-688946545#0" to="-690516608#0"/>
    <trip id="motorcycle179" type="motorcycle_motorcycle" depart="186.93" departLane="best" from="233738950" to="964507880"/>
    <trip id="motorcycle180" type="motorcycle_motorcycle" depart="187.98" departLane="best" from="278036590" to="417625061#0"/>
    <trip id="motorcycle181" type="motorcycle_motorcycle" depart="189.02" departLane="best" from="-23025882#2" to="-381431263#9"/>
    <trip id="motorcycle182" type="motorcycle_motorcycle" depart="190.07" departLane="best" from="-688992277" to="-170343042"/>
    <trip id="motorcycle183" type="motorcycle_motorcycle" depart="191.11" departLane="best" from="-688976551" to="90447868#4"/>
    <trip id="motorcycle184" type="motorcycle_motorcycle" depart="192.16" departLane="best" from="342886913#3" to="691529216#0"/>
    <trip id="motorcycle185" type="motorcycle_motorcycle" depart="193.20" departLane="best" from="-927152355" to="-170343065#1"/>
    <trip id="motorcycle187" type="motorcycle_motorcycle" depart="195.29" departLane="best" from="233740169#0" to="698105429#0"/>
    <trip id="motorcycle188" type="motorcycle_motorcycle" depart="196.33" departLane="best" from="698765560" to="1131116642"/>
    <trip id="motorcycle189" type="motorcycle_motorcycle" depart="197.38" departLane="best" from="-56049250#4" to="927149238#0"/>
    <trip id="motorcycle190" type="motorcycle_motorcycle" depart="198.42" departLane="best" from="148744339#0" to="90564612#2"/>
    <trip id="motorcycle191" type="motorcycle_motorcycle" depart="199.47" departLane="best" from="697231512#5" to="-697842141"/>
    <trip id="motorcycle192" type="motorcycle_motorcycle" depart="200.51" departLane="best" from="79888971#0" to="-948889608"/>
    <trip id="motorcycle193" type="motorcycle_motorcycle" depart="201.56" departLane="best" from="-199924293#2" to="261495785"/>
    <trip id="motorcycle194" type="motorcycle_motorcycle" depart="202.60" departLane="best" from="382405859#3" to="-75608981#0"/>
    <trip id="motorcycle195" type="motorcycle_motorcycle" depart="203.64" departLane="best" from="170343045#2" to="689207005"/>
    <trip id="motorcycle196" type="motorcycle_motorcycle" depart="204.69" departLane="best" from="233740167#1" to="195670766#1"/>
    <trip id="motorcycle197" type="motorcycle_motorcycle" depart="205.73" departLane="best" from="56049250#5" to="56049250#9"/>
    <trip id="motorcycle198" type="motorcycle_motorcycle" depart="206.78" departLane="best" from="75608981#0" to="381428130#11"/>
    <trip id="motorcycle199" type="motorcycle_motorcycle" depart="207.82" departLane="best" from="-24028276#6" to="1131119005"/>
    <trip id="motorcycle200" type="motorcycle_motorcycle" depart="208.87" departLane="best" from="-700448563#5" to="-23311477#10"/>
    <trip id="motorcycle201" type="motorcycle_motorcycle" depart="209.91" departLane="best" from="278036591" to="-927527973#0"/>
    <trip id="motorcycle202" type="motorcycle_motorcycle" depart="210.95" departLane="best" from="54780909#0" to="697025666#0"/>
    <trip id="motorcycle203" type="motorcycle_motorcycle" depart="212.00" departLane="best" from="23025882#0" to="23025882#10"/>
    <trip id="motorcycle204" type="motorcycle_motorcycle" depart="213.04" departLane="best" from="927528751" to="690280020"/>
    <trip id="motorcycle205" type="motorcycle_motorcycle" depart="214.09" departLane="best" from="-688992277" to="689685700#1"/>
    <trip id="motorcycle206" type="motorcycle_motorcycle" depart="215.13" departLane="best" from="24028363#3" to="-75608980#0"/>
    <trip id="motorcycle207" type="motorcycle_motorcycle" depart="216.18" departLane="best" from="266824848#0" to="-24028719#10"/>
    <trip id="motorcycle209" type="motorcycle_motorcycle" depart="218.26" departLane="best" from="324373694#3" to="69559564#0"/>
    <trip id="motorcycle210" type="motorcycle_motorcycle" depart="219.31" departLane="best" from="283153267" to="-694361374"/>
    <trip id="motorcycle211" type="motorcycle_motorcycle" depart="220.35" departLane="best" from="-1131117483" to="-23025882#5"/>
    <trip id="motorcycle212" type="motorcycle_motorcycle" depart="221.40" departLane="best" from="-690280020" to="641451992"/>
    <trip id="motorcycle213" type="motorcycle_motorcycle" depart="222.44" departLane="best" from="199924293#3" to="-90564614#3"/>
    <trip id="motorcycle214" type="motorcycle_motorcycle" depart="223.49" departLane="best" from="694361374" to="575408675#1"/>
    <trip id="motorcycle215" type="motorcycle_motorcycle" depart="224.53" departLane="best" from="90564611#3" to="697842142"/>
    <trip id="motorcycle216" type="motorcycle_motorcycle" depart="225.57" departLane="best" from="-56049250#8" to="927152354#1"/>
    <trip id="motorcycle217" type="motorcycle_motorcycle" depart="226.62" departLane="best" from="-79890300#0" to="689206997"/>
    <trip id="motorcycle219" type="motorcycle_motorcycle" depart="228.71" departLane="best" from="381425897#6" to="-23311477#3"/>
    <trip id="motorcycle220" type="motorcycle_motorcycle" depart="229.75" departLane="best" from="-138507645#1" to="-699556700#0"/>
    <trip id="motorcycle221" type="motorcycle_motorcycle" depart="230.80" departLane="best" from="-22802886#3" to="789197903#0"/>
    <trip id="motorcycle223" type="motorcycle_motorcycle" depart="232.89" departLane="best" from="691529216#3" to="927134034"/>
    <trip id="motorcycle224" type="motorcycle_motorcycle" depart="233.93" departLane="best" from="23311477#6" to="90447846"/>
    <trip id="motorcycle225" type="motorcycle_motorcycle" depart="234.97" departLane="best" from="381425897#3" to="635483486#2"/>
    <trip id="motorcycle226" type="motorcycle_motorcycle" depart="236.02" departLane="best" from="90447846" to="927509185"/>
    <trip id="motorcycle227" type="motorcycle_motorcycle" depart="237.06" departLane="best" from="-927172166" to="199924293#0"/>
    <trip id="motorcycle228" type="motorcycle_motorcycle" depart="238.11" departLane="best" from="79895493#0" to="1132699456"/>
    <trip id="motorcycle229" type="motorcycle_motorcycle" depart="239.15" departLane="best" from="-199924293#3" to="-381428131#1"/>
    <trip id="motorcycle230" type="motorcycle_motorcycle" depart="240.20" departLane="best" from="-278039836#0" to="22803070#2"/>
    <trip id="motorcycle231" type="motorcycle_motorcycle" depart="241.24" departLane="best" from="697043136#0" to="130830301#8"/>
    <trip id="motorcycle232" type="motorcycle_motorcycle" depart="242.28" departLane="best" from="-342886913#2" to="-278039836#1"/>
    <trip id="motorcycle233" type="motorcycle_motorcycle" depart="243.33" departLane="best" from="689174081#1" to="-464522044"/>
    <trip id="motorcycle234" type="motorcycle_motorcycle" depart="244.37" departLane="best" from="22980582#2" to="22802886#4"/>
    <trip id="motorcycle235" type="motorcycle_motorcycle" depart="245.42" departLane="best" from="698105429#0" to="697842142"/>
    <trip id="motorcycle236" type="motorcycle_motorcycle" depart="246.46" departLane="best" from="-233740169#3" to="-75608979#1"/>
    <trip id="motorcycle238" type="motorcycle_motorcycle" depart="248.55" departLane="best" from="233740167#0" to="-23025882#15"/>
    <trip id="motorcycle239" type="motorcycle_motorcycle" depart="249.59" departLane="best" from="54780909#1" to="-245069159"/>