<?xml version="1.0" encoding="UTF-8"?>

<!-- generated on 2023-02-27 16:42:52.635959 by osmWebWizard.py v1_16_0+0000-94ec4c6cd72
<configuration>
    <allow-fringe.min-length value="1000.0"/>
    <begin value="0"/>
    <end value="3600"/>
    <fringe-factor value="5"/>
    <fringe-start-attributes value="departSpeed=&quot;max&quot;"/>
    <insertion-density value="12.0"/>
    <lanes value="True"/>
    <min-distance.fringe value="10.0"/>
    <min-distance value="300.0"/>
    <net-file value="C:\Users\bestg\Sumo\2023-02-27-16-42-36\osm.net.xml.gz"/>
    <remove-loops value="True"/>
    <route-file value="C:\Users\bestg\Sumo\2023-02-27-16-42-36\osm.passenger.rou.xml"/>
    <trip-attributes value="departLane=&quot;best&quot;"/>
    <output-trip-file value="C:\Users\bestg\Sumo\2023-02-27-16-42-36\osm.passenger.trips.xml"/>
    <prefix value="veh"/>
    <validate value="True"/>
    <vehicle-class value="passenger"/>
</configuration>
-->

<!-- generated on 2023-02-27 16:42:52 by Eclipse SUMO duarouter Version 1.16.0
<configuration xmlns:xsi="http://www.w3.org/2001/XMLSchema-instance" xsi:noNamespaceSchemaLocation="http://sumo.dlr.de/xsd/duarouterConfiguration.xsd">

    <input>
        <net-file value="C:\Users\bestg\Sumo\2023-02-27-16-42-36\osm.net.xml.gz"/>
        <route-files value="C:\Users\bestg\Sumo\2023-02-27-16-42-36\osm.passenger.trips.xml"/>
    </input>

    <output>
        <output-file value="C:\Users\bestg\Sumo\2023-02-27-16-42-36\osm.passenger.trips.xml.tmp"/>
        <alternatives-output value="NUL"/>
        <write-trips value="true"/>
    </output>

    <processing>
        <remove-loops value="true"/>
    </processing>

    <time>
        <begin value="0"/>
        <end value="3600"/>
    </time>

    <report>
        <no-warnings value="true"/>
        <ignore-errors value="true"/>
        <no-step-log value="true"/>
    </report>

</configuration>
-->

<routes xmlns:xsi="http://www.w3.org/2001/XMLSchema-instance" xsi:noNamespaceSchemaLocation="http://sumo.dlr.de/xsd/routes_file.xsd">
    <vType id="veh_passenger" vClass="passenger"/>
    <trip id="veh1" type="veh_passenger" depart="1.74" departLane="best" from="-69559532#2" to="-635483486#1"/>
    <trip id="veh2" type="veh_passenger" depart="3.48" departLane="best" from="689171099#0" to="641124166"/>
    <trip id="veh3" type="veh_passenger" depart="5.22" departLane="best" from="698783952" to="-209324877"/>
    <trip id="veh4" type="veh_passenger" depart="6.96" departLane="best" from="170343042" to="-161536882"/>
    <trip id="veh6" type="veh_passenger" depart="10.44" departLane="best" from="19822220#2" to="-4270622#2"/>
    <trip id="veh7" type="veh_passenger" depart="12.18" departLane="best" from="559362516#0" to="24028543"/>
    <trip id="veh8" type="veh_passenger" depart="13.92" departLane="best" from="-58306933#4" to="-381425895#2"/>
    <trip id="veh9" type="veh_passenger" depart="15.66" departLane="best" from="694361370" to="1131116642"/>
    <trip id="veh10" type="veh_passenger" depart="17.41" departLane="best" from="-691529216#9" to="688953178#0"/>
    <trip id="veh11" type="veh_passenger" depart="19.15" departLane="best" from="-90564604#2" to="-278039840#1"/>
    <trip id="veh12" type="veh_passenger" depart="20.89" departLane="best" from="-21261766#0" to="-22802893#1"/>
    <trip id="veh13" type="veh_passenger" depart="22.63" departLane="best" from="697831506#0" to="381427099"/>
    <trip id="veh14" type="veh_passenger" depart="24.37" departLane="best" from="-692291871" to="689012455#1"/>
    <trip id="veh15" type="veh_passenger" depart="26.11" departLane="best" from="24028666#0" to="-90564612#3"/>
    <trip id="veh16" type="veh_passenger" depart="27.85" departLane="best" from="-1131108835" to="243767007#2"/>
    <trip id="veh17" type="veh_passenger" depart="29.59" departLane="best" departSpeed="max" from="696968696#0" to="382405859#0"/>
    <trip id="veh18" type="veh_passenger" depart="31.33" departLane="best" from="697849398#0" to="322606171#0"/>
    <trip id="veh19" type="veh_passenger" depart="33.07" departLane="best" from="688956452#1" to="-170343070"/>
    <trip id="veh20" type="veh_passenger" depart="34.81" departLane="best" from="-645148366" to="-698306854#1"/>
    <trip id="veh21" type="veh_passenger" depart="36.55" departLane="best" from="199989363#0" to="688938074#1"/>
    <trip id="veh23" type="veh_passenger" depart="40.03" departLane="best" from="442882597#0" to="-927524287"/>
    <trip id="veh24" type="veh_passenger" depart="41.77" departLane="best" from="948889608" to="-54780909#4"/>
    <trip id="veh25" type="veh_passenger" depart="43.51" departLane="best" from="691529216#8" to="79890303#3"/>
    <trip id="veh26" type="veh_passenger" depart="45.25" departLane="best" from="54780909#1" to="-381428130#5"/>
    <trip id="veh27" type="veh_passenger" depart="46.99" departLane="best" from="381425895#0" to="-689012455#0"/>
    <trip id="veh28" type="veh_passenger" depart="48.74" departLane="best" from="-322606171#0" to="1130782219"/>
    <trip id="veh29" type="veh_passenger" depart="50.48" departLane="best" from="927524288" to="485467278#0"/>
    <trip id="veh30" type="veh_passenger" depart="52.22" departLane="best" from="-261495787" to="666272203#1"/>
    <trip id="veh31" type="veh_passenger" depart="53.96" departLane="best" from="697214214#2" to="689773223#0"/>
    <trip id="veh33" type="veh_passenger" depart="57.44" departLane="best" from="-789197903#5" to="691529216#8"/>
    <trip id="veh34" type="veh_passenger" depart="59.18" departLane="best" from="-56049250#4" to="79895526#1"/>
    <trip id="veh35" type="veh_passenger" depart="60.92" departLane="best" from="698719345#0" to="789197903#0"/>
    <trip id="veh36" type="veh_passenger" depart="62.66" departLane="best" from="566505977" to="130830301#3"/>
    <trip id="veh37" type="veh_passenger" depart="64.40" departLane="best" from="75608981#0" to="190030831#2"/>
    <trip id="veh38" type="veh_passenger" depart="66.14" departLane="best" from="-691529216#5" to="-689012455#4"/>
    <trip id="veh39" type="veh_passenger" depart="67.88" departLane="best" from="278036591" to="691529216#3"/>
    <trip id="veh40" type="veh_passenger" depart="69.62" departLane="best" from="-342886913#2" to="-699556700#1"/>
    <trip id="veh42" type="veh_passenger" depart="73.10" departLane="best" from="-964507880" to="-22980582#1"/>
    <trip id="veh43" type="veh_passenger" depart="74.84" departLane="best" from="-212268943" to="-170345938#1"/>
    <trip id="veh44" type="veh_passenger" depart="76.58" departLane="best" from="23311477#11" to="42505008#0"/>
    <trip id="veh45" type="veh_passenger" depart="78.32" departLane="best" departSpeed="max" from="690817634" to="15677032"/>
    <trip id="veh46" type="veh_passenger" depart="80.07" departLane="best" from="-193160101#2" to="1131116642"/>
    <trip id="veh47" type="veh_passenger" depart="81.81" departLane="best" from="948889608" to="-233743268"/>
    <trip id="veh48" type="veh_passenger" depart="83.55" departLane="best" from="90564611#3" to="697862989"/>
    <trip id="veh49" type="veh_passenger" depart="85.29" departLane="best" from="117177758" to="688956456"/>
    <trip id="veh50" type="veh_passenger" depart="87.03" departLane="best" from="666272200" to="-24028351#2"/>
    <trip id="veh51" type="veh_passenger" depart="88.77" departLane="best" from="691529216#8" to="-529106160#0"/>
    <trip id="veh53" type="veh_passenger" depart="92.25" departLane="best" from="698719345#0" to="-691529216#4"/>
    <trip id="veh54" type="veh_passenger" depart="93.99" departLane="best" from="22980582#3" to="-381425897#2"/>
    <trip id="veh55" type="veh_passenger" depart="95.73" departLane="best" from="75608981#0" to="698105427"/>
    <trip id="veh56" type="veh_passenger" depart="97.47" departLane="best" from="699563646" to="474164339#1"/>
    <trip id="veh57" type="veh_passenger" depart="99.21" departLane="best" from="381428130#19" to="-278036590"/>
    <trip id="veh58" type="veh_passenger" depart="100.95" departLane="best" from="689693740#0" to="24028363#3"/>
    <trip id="veh59" type="veh_passenger" depart="102.69" departLane="best" from="689960225#4" to="233743272#1"/>
    <trip id="veh60" type="veh_passenger" depart="104.43" departLane="best" from="1028906331#0" to="-79890340#2"/>
    <trip id="veh61" type="veh_passenger" depart="106.17" departLane="best" from="75608978#1" to="-189631723#7"/>
    <trip id="veh62" type="veh_passenger" depart="107.91" departLane="best" from="698765557#0" to="79895526#1"/>
    <trip id="veh63" type="veh_passenger" depart="109.65" departLane="best" from="-209323880#2" to="-199989363#2"/>
    <trip id="veh64" type="veh_passenger" depart="111.39" departLane="best" from="-195670761" to="689207002"/>
    <trip id="veh65" type="veh_passenger" depart="113.14" departLane="best" from="689773218#5" to="-24028351#1"/>
    <trip id="veh66" type="veh_passenger" depart="114.88" departLane="best" from="199989363#0" to="-24028719#10"/>
    <trip id="veh67" type="veh_passenger" depart="116.62" departLane="best" from="691529216#7" to="698105428"/>
    <trip id="veh68" type="veh_passenger" depart="118.36" departLane="best" from="170343045#1" to="56049250#5"/>
    <trip id="veh69" type="veh_passenger" depart="120.10" departLane="best" from="24028719#9" to="-689012455#4"/>
    <trip id="veh70" type="veh_passenger" depart="121.84" departLane="best" from="460247949" to="-75608981#1"/>
    <trip id="veh72" type="veh_passenger" depart="125.32" departLane="best" from="189617849" to="-23311477#1"/>
    <trip id="veh73" type="veh_passenger" depart="127.06" departLane="best" from="233743272#0" to="-635483486#7"/>
    <trip id="veh74" type="veh_passenger" depart="128.80" departLane="best" from="-90564599" to="-381425895#0"/>
    <trip id="veh76" type="veh_passenger" depart="132.28" departLane="best" from="-195700805#1" to="-440785220"/>
    <trip id="veh77" type="veh_passenger" depart="134.02" departLane="best" from="-666019829" to="-700448563#5"/>
    <trip id="veh78" type="veh_passenger" depart="135.76" departLane="best" from="697849397" to="-195700805#1"/>
    <trip id="veh79" type="veh_passenger" depart="137.50" departLane="best" from="-575408675#2" to="24028408#1"/>
    <trip id="veh80" type="veh_passenger" depart="139.24" departLane="best" from="-79890300#1" to="688938074#3"/>
    <trip id="veh81" type="veh_passenger" depart="140.98" departLane="best" from="199956852" to="689960225#3"/>
    <trip id="veh82" type="veh_passenger" depart="142.72" departLane="best" from="692291875#1" to="-381428130#9"/>
    <trip id="veh83" type="veh_passenger" depart="144.47" departLane="best" from="22803019#0" to="-170343041"/>
    <trip id="veh84" type="veh_passenger" depart="146.21" departLane="best" from="170343045#2" to="193287611"/>
    <trip id="veh85" type="veh_passenger" depart="147.95" departLane="best" from="689012456#5" to="635485290#0"/>
    <trip id="veh86" type="veh_passenger" depart="149.69" departLane="best" from="-927172166" to="22803070#2"/>
    <trip id="veh87" type="veh_passenger" depart="151.43" departLane="best" from="138506508#2" to="-90564601#4"/>
    <trip id="veh88" type="veh_passenger" depart="153.17" departLane="best" from="697849398#0" to="-689012456#0"/>
    <trip id="veh89" type="veh_passenger" depart="154.91" departLane="best" from="-381428130#9" to="-189617850#0"/>
    <trip id="veh91" type="veh_passenger" depart="158.39" departLane="best" from="689012456#2" to="-763914929"/>
    <trip id="veh92" type="veh_passenger" depart="160.13" departLane="best" from="189631723#3" to="697862989"/>
    <trip id="veh94" type="veh_passenger" depart="163.61" departLane="best" from="975661449" to="697214214#2"/>
    <trip id="veh95" type="veh_passenger" depart="165.35" departLane="best" from="90564609#6" to="77768472#0"/>
    <trip id="veh97" type="veh_passenger" depart="168.83" departLane="best" from="-212222212#1" to="575408675#0"/>
    <trip id="veh98" type="veh_passenger" depart="170.57" departLane="best" from="130830301#3" to="189631894#0"/>
    <trip id="veh99" type="veh_passenger" depart="172.31" departLane="best" from="-1131108835" to="927270647"/>
    <trip id="veh100" type="veh_passenger" depart="174.05" departLane="best" from="691529216#7" to="689960225#2"/>
    <trip id="veh101" type="veh_passenger" depart="175.80" departLane="best" from="-191346956#1" to="15677032"/>
    <trip id="veh102" type="veh_passenger" depart="177.54" departLane="best" from="-90447864" to="-948889608"/>
    <trip id="veh103" type="veh_passenger" depart="179.28" departLane="best" from="259644271#1" to="688956456"/>
    <trip id="veh104" type="veh_passenger" depart="181.02" departLane="best" from="-278039840#0" to="699556701#0"/>
    <trip id="veh107" type="veh_passenger" depart="186.24" departLane="best" from="189631723#2" to="342886913#0"/>
    <trip id="veh108" type="veh_passenger" depart="187.98" departLane="best" from="-23025882#11" to="-381427100"/>
    <trip id="veh109" type="veh_passenger" depart="189.72" departLane="best" from="283153264" to="-90564598#2"/>
    <trip id="veh110" type="veh_passenger" depart="191.46" departLane="best" from="-199989363#1" to="-381428130#15"/>
    <trip id="veh111" type="veh_passenger" depart="193.20" departLane="best" from="381425897#1" to="635485290#1"/>
    <trip id="veh112" type="veh_passenger" depart="194.94" departLane="best" from="-688946543#1" to="233740169#5"/>
    <trip id="veh113" type="veh_passenger" depart="196.68" departLane="best" from="698783951" to="-689012455#4"/>
    <trip id="veh114" type="veh_passenger" depart="198.42" departLane="best" from="381425895#6" to="382405859#0"/>
    <trip id="veh115" type="veh_passenger" depart="200.16" departLane="best" from="-161536933#0" to="-342886913#2"/>
    <trip id="veh116" type="veh_passenger" depart="201.90" departLane="best" from="-24028276#1" to="79890300#0"/>
    <trip id="veh117" type="veh_passenger" depart="203.64" departLane="best" from="529378760" to="688956452#7"/>
    <trip id="veh118" type="veh_passenger" depart="205.38" departLane="best" from="688976556#0" to="130830301#3"/>
    <trip id="veh119" type="veh_passenger" depart="207.12" departLane="best" from="635483486#2" to="-699563648"/>
    <trip id="veh120" type="veh_passenger" depart="208.87" departLane="best" from="789197903#6" to="689200338#0"/>
    <trip id="veh121" type="veh_passenger" depart="210.61" departLane="best" from="19822182#5" to="190030831#1"/>
    <trip id="veh122" type="veh_passenger" depart="212.35" departLane="best" from="975661449" to="-948889608"/>
    <trip id="veh123" type="veh_passenger" depart="214.09" departLane="best" from="19822220#0" to="-56049250#9"/>
    <trip id="veh124" type="veh_passenger" depart="215.83" departLane="best" from="-691529216#7" to="79888971#3"/>
    <trip id="veh125" type="veh_passenger" depart="217.57" departLane="best" from="-927566835" to="-283153264"/>
    <trip id="veh126" type="veh_passenger" depart="219.31" departLane="best" from="696968696#4" to="688956452#1"/>
    <trip id="veh127" type="veh_passenger" depart="221.05" departLane="best" from="381428130#8" to="927509185"/>
    <trip id="veh128" type="veh_passenger" depart="222.79" departLane="best" from="-56049250#8" to="1131119005"/>
    <trip id="veh129" type="veh_passenger" depart="224.53" departLane="best" from="69559556#0" to="-699563646"/>
    <trip id="veh131" type="veh_passenger" depart="228.01" departLane="best" from="-24028532" to="-233738950"/>
    <trip id="veh132" type="veh_passenger" depart="229.75" departLane="best" from="-23025882#7" to="-246307859"/>
    <trip id="veh133" type="veh_passenger" depart="231.49" departLane="best" from="1028906331#3" to="381428130#10"/>
    <trip id="veh134" type="veh_passenger" depart="233.23" departLane="best" from="688976556#0" to="-529106160#0"/>
    <trip id="veh135" type="veh_passenger" depart="234.97" departLane="best" from="442168560#0" to="-691529216#4"/>
    <trip id="veh136" type="veh_passenger" depart="236.71" departLane="best" from="-212268952#0" to="-700448563#5"/>
    <trip id="veh137" type="veh_passenger" depart="238.45" departLane="best" from="697231512#5" to="212268952#1"/>
    <trip id="veh139" type="veh_passenger" depart="241.94" departLane="best" from="-1127432025" to="689696057#0"/>
    <trip id="veh140" type="veh_passenger" depart="243.68" departLane="best" from="443315344" to="-691529216#2"/>
    <trip id="veh141" type="veh_passenger" depart="245.42" departLane="best" from="689174081#1" to="243767007#2"/>
    <trip id="veh142" type="veh_passenger" depart="247.16" departLane="best" from="-170343049#0" to="1133083733"/>
    <trip id="veh143" type="veh_passenger" depart="248.90" departLane="best" from="-199923198#1" to="698774281"/>
    <trip id="veh144" type="veh_passenger" depart="250.64" departLane="best" from="700448563#0" to="24028601"/>
    <trip id="veh145" type="veh_passenger" depart="252.38" departLane="best" from="696984064#0" to="324619626"/>
    <trip id="veh146" type="veh_passenger" depart="254.12" departLane="best" from="-261495787" to="-24028346#1"/>
    <trip id="veh147" type="veh_passenger" depart="255.86" departLane="best" from="-75608979#0" to="-699556701#1"/>
    <trip id="veh148" type="veh_passenger" depart="257.60" departLane="best" departSpeed="max" from="690817634" to="697862989"/>
    <trip id="veh149" type="veh_passenger" depart="259.34" departLane="best" from="699556701#0" to="557105492"/>
    <trip id="veh150" type="veh_passenger" depart="261.08" departLane="best" from="689012456#2" to="23025882#10"/>
    <trip id="veh151" type="veh_passenger" depart="262.82" departLane="best" from="689960225#6" to="698774281"/>
    <trip id="veh152" type="veh_passenger" depart="264.56" departLane="best" from="138507636#0" to="382405859#2"/>
    <trip id="veh153" type="veh_passenger" depart="266.30" departLane="best" from="-278039840#0" to="791188433"/>
    <trip id="veh154" type="veh_passenger" depart="268.04" departLane="best" from="697849399#2" to="91933305#0"/>
    <trip id="veh156" type="veh_passenger" depart="271.53" departLane="best" from="148744339#0" to="-689012456#7"/>
    <trip id="veh157" type="veh_passenger" depart="273.27" departLane="best" from="-90447863#0" to="791188433"/>
    <trip id="veh158" type="veh_passenger" depart="275.01" departLane="best" from="691529216#4" to="697862989"/>
    <trip id="veh159" type="veh_passenger" depart="276.75" departLane="best" from="694361370" to="691529216#7"/>
    <trip id="veh160" type="veh_passenger" depart="278.49" departLane="best" from="381425895#6" to="23025882#8"/>
    <trip id="veh161" type="veh_passenger" depart="280.23" departLane="best" from="698105428" to="697849399#2"/>
    <trip id="veh163" type="veh_passenger" depart="283.71" departLane="best" from="195668679#0" to="-723962052"/>
    <trip id="veh164" type="veh_passenger" depart="285.45" departLane="best" departSpeed="max" from="690817634" to="641451997"/>
    <trip id="veh166" type="veh_passenger" depart="288.93" departLane="best" from="90447834" to="697862989"/>
    <trip id="veh168" type="veh_passenger" depart="292.41" departLane="best" from="485467344#0" to="130830301#8"/>
    <trip id="veh169" type="veh_passenger" depart="294.15" departLane="best" from="927152354#0" to="-24028351#1"/>
    <trip id="veh170" type="veh_passenger" depart="295.89" departLane="best" from="79890340#0" to="-233738950"/>
    <trip id="veh171" type="veh_passenger" depart="297.63" departLane="best" from="90564611#2" to="-381425897#2"/>
    <trip id="veh172" type="veh_passenger" depart="299.37" departLane="best" from="689012456#5" to="-763914930#0"/>
    <trip id="veh173" type="veh_passenger" depart="301.11" departLane="best" from="381428130#11" to="-23025882#2"/>
    <trip id="veh174" type="veh_passenger" depart="302.85" departLane="best" from="115131568#1" to="320664134"/>
    <trip id="veh175" type="veh_passenger" depart="304.60" departLane="best" from="-690496989" to="688956452#6"/>
    <trip id="veh176" type="veh_passenger" depart="306.34" departLane="best" from="-1094441784" to="765931166"/>
    <trip id="veh177" type="veh_passenger" depart="308.08" departLane="best" from="24028719#11" to="688956456"/>
    <trip id="veh178" type="veh_passenger" depart="309.82" departLane="best" from="689176059#0" to="-635483486#7"/>
    <trip id="veh179" type="veh_passenger" depart="311.56" departLane="best" from="927524288" to="21261766#3"/>
    <trip id="veh180" type="veh_passenger" depart="313.30" departLane="best" from="58306933#0" to="-90447839#1"/>
    <trip id="veh181" type="veh_passenger" depart="315.04" departLane="best" from="-789197903#2" to="697842136"/>
    <trip id="veh182" type="veh_passenger" depart="316.78" departLane="best" from="-689012450#2" to="-699619659#2"/>
    <trip id="veh183" type="veh_passenger" depart="318.52" departLane="best" from="75608980#0" to="138507632"/>
    <trip id="veh184" type="veh_passenger" depart="320.26" departLane="best" from="24028346#0" to="15677032"/>
    <trip id="veh185" type="veh_passenger" depart="322.00" departLane="best" from="79895493#0" to="641451992"/>
    <trip id="veh186" type="veh_passenger" depart="323.74" departLane="best" from="699619659#3" to="382404264#0"/>
    <trip id="veh187" type="veh_passenger" depart="325.48" departLane="best" from="699625397#0" to="-24028719#8"/>
    <trip id="veh188" type="veh_passenger" depart="327.22" departLane="best" from="1028906331#0" to="697831506#3"/>
    <trip id="veh190" type="veh_passenger" depart="330.70" departLane="best" from="-56049250#9" to="191346956#0"/>
    <trip id="veh191" type="veh_passenger" depart="332.44" departLane="best" from="189631723#2" to="575408675#0"/>
    <trip id="veh193" type="veh_passenger" depart="335.93" departLane="best" departSpeed="max" from="690817634" to="342886913#3"/>
    <trip id="veh194" type="veh_passenger" depart="337.67" departLane="best" from="-205009325" to="-23025882#5"/>
    <trip id="veh195" type="veh_passenger" depart="339.41" departLane="best" from="442168560#0" to="90447864"/>
    <trip id="veh196" type="veh_passenger" depart="341.15" departLane="best" from="69559556#2" to="800258872"/>
    <trip id="veh197" type="veh_passenger" depart="342.89" departLane="best" from="-635483486#8" to="-635483486#7"/>
    <trip id="veh201" type="veh_passenger" depart="349.85" departLane="best" from="148744339#4" to="-4270622#2"/>
    <trip id="veh202" type="veh_passenger" depart="351.59" departLane="best" from="-395857693#0" to="688946541#2"/>
    <trip id="veh203" type="veh_passenger" depart="353.33" departLane="best" from="-575408675#0" to="1131108836"/>
    <trip id="veh204" type="veh_passenger" depart="355.07" departLane="best" from="689207001" to="22803055"/>
    <trip id="veh205" type="veh_passenger" depart="356.81" departLane="best" from="23025882#5" to="15677032"/>
    <trip id="veh206" type="veh_passenger" depart="358.55" departLane="best" from="381425895#6" to="90447868#0"/>
    <trip id="veh208" type="veh_passenger" depart="362.03" departLane="best" from="689012456#1" to="697842138#0"/>
    <trip id="veh209" type="veh_passenger" depart="363.77" departLane="best" from="-193160101#2" to="-691529216#3"/>
    <trip id="veh210" type="veh_passenger" depart="365.51" departLane="best" from="627946321" to="927515582"/>
    <trip id="veh211" type="veh_passenger" depart="367.26" departLane="best" from="381425897#1" to="866506838"/>
    <trip id="veh212" type="veh_passenger" depart="369.00" departLane="best" from="698783952" to="-381431263#6"/>
    <trip id="veh213" type="veh_passenger" depart="370.74" departLane="best" from="-688992277" to="22802893#0"/>
    <trip id="veh214" type="veh_passenger" depart="372.48" departLane="best" departSpeed="max" from="696968696#0" to="-24028719#8"/>
    <trip id="veh216" type="veh_passenger" depart="375.96" departLane="best" from="199989363#0" to="691529215"/>
    <trip id="veh217" type="veh_passenger" depart="377.70" departLane="best" from="689773218#5" to="-23311477#7"/>
    <trip id="veh218" type="veh_passenger" depart="379.44" departLane="best" from="417625061#0" to="-69559532#0"/>
    <trip id="veh219" type="veh_passenger" depart="381.18" departLane="best" from="-199924293#2" to="-697831506#2"/>
    <trip id="veh220" type="veh_passenger" depart="382.92" departLane="best" from="-694361375" to="79888971#3"/>
    <trip id="veh221" type="veh_passenger" depart="384.66" departLane="best" from="24028751#0" to="24028719#11"/>
    <trip id="veh222" type="veh_passenger" depart="386.40" departLane="best" from="688956452#3" to="-193287611"/>
    <trip id="veh223" type="veh_passenger" depart="388.14" departLane="best" from="138507644" to="24028414#0"/>
    <trip id="veh224" type="veh_passenger" depart="389.88" departLane="best" from="-154653037#2" to="543846362"/>
    <trip id="veh225" type="veh_passenger" depart="391.62" departLane="best" from="-161536930" to="-700448563#4"/>
    <trip id="veh226" type="veh_passenger" depart="393.36" departLane="best" from="-326693652" to="688946541#1"/>
    <trip id="veh227" type="veh_passenger" depart="395.10" departLane="best" from="-697842140#1" to="689207005"/>
    <trip id="veh228" type="veh_passenger" depart="396.84" departLane="best" from="-90564614#3" to="689206997"/>
    <trip id="veh231" type="veh_passenger" depart="402.07" departLane="best" departSpeed="max" from="24029003#0" to="381427099"/>
    <trip id="veh233" type="veh_passenger" depart="405.55" departLane="best" from="-174434310#2" to="154653037#0"/>
    <trip id="veh234" type="veh_passenger" depart="407.29" departLane="best" from="-90447868#4" to="66355338#0"/>
    <trip id="veh236" type="veh_passenger" depart="410.77" departLane="best" from="19822220#4" to="-24028346#1"/>
    <trip id="veh238" type="veh_passenger" depart="414.25" departLane="best" departSpeed="max" from="130774327#0" to="-692291875#0"/>
    <trip id="veh240" type="veh_passenger" depart="417.73" departLane="best" from="-24028543" to="190030831#4"/>
    <trip id="veh242" type="veh_passenger" depart="421.21" departLane="best" from="-56049250#8" to="-79895500#2"/>
    <trip id="veh243" type="veh_passenger" depart="422.95" departLane="best" from="689685700#1" to="1130782219"/>
    <trip id="veh244" type="veh_passenger" depart="424.69" departLane="best" from="689207002" to="697025666#0"/>
    <trip id="veh245" type="veh_passenger" depart="426.43" departLane="best" from="-689018015#1" to="-199989363#2"/>
    <trip id="veh246" type="veh_passenger" depart="428.17" departLane="best" from="138507636#1" to="381431263#8"/>
    <trip id="veh247" type="veh_passenger" depart="429.91" departLane="best" from="975661449" to="90564612#0"/>
    <trip id="veh248" type="veh_passenger" depart="431.66" departLane="best" from="559362516#0" to="689960225#0"/>
    <trip id="veh249" type="veh_passenger" depart="433.40" departLane="best" from="559362516#1" to="689206998#0"/>
    <trip id="veh250" type="veh_passenger" depart="435.14" departLane="best" from="-138507645#1" to="-276725517"/>
    <trip id="veh251" type="veh_passenger" depart="436.88" departLane="best" from="-24028276#6" to="635483486#0"/>
    <trip id="veh252" type="veh_passenger" depart="438.62" departLane="best" from="278039840#1" to="-575413619#3"/>
    <trip id="veh253" type="veh_passenger" depart="440.36" departLane="best" from="688953177" to="689232779"/>
    <trip id="veh254" type="veh_passenger" depart="442.10" departLane="best" from="-326693652" to="381428130#17"/>
    <trip id="veh255" type="veh_passenger" depart="443.84" departLane="best" from="689206999" to="-233738948#2"/>
    <trip id="veh256" type="veh_passenger" depart="445.58" departLane="best" from="69559562#0" to="-90564607"/>
    <trip id="veh258" type="veh_passenger" depart="449.06" departLane="best" from="-763914929" to="641451992"/>
    <trip id="veh259" type="veh_passenger" depart="450.80" departLane="best" from="-90447868#2" to="130830301#3"/>
    <trip id="veh261" type="veh_passenger" depart="454.28" departLane="best" from="688930921" to="42505008#0"/>
    <trip id="veh262" type="veh_passenger" depart="456.02" departLane="best" from="22980582#3" to="689773218#1"/>
    <trip id="veh263" type="veh_passenger" depart="457.76" departLane="best" from="-697831506#3" to="381426809#0"/>
    <trip id="veh264" type="veh_passenger" depart="459.50" departLane="best" from="-688976551" to="-90564609#7"/>
    <trip id="veh265" type="veh_passenger" depart="461.24" departLane="best" from="170343050#0" to="-927566835"/>
    <trip id="veh266" type="veh_passenger" depart="462.99" departLane="best" from="23025882#6" to="-90564604#2"/>
    <trip id="veh268" type="veh_passenger" depart="466.47" departLane="best" from="23025882#4" to="90564598#1"/>
    <trip id="veh270" type="veh_passenger" depart="469.95" departLane="best" from="688956452#5" to="170343045#7"/>
    <trip id="veh271" type="veh_passenger" depart="471.69" departLane="best" from="694361374" to="77768472#0"/>
    <trip id="veh273" type="veh_passenger" depart="475.17" departLane="best" from="170345943#1" to="-689012456#0"/>
    <trip id="veh274" type="veh_passenger" depart="476.91" departLane="best" from="692291875#1" to="697842142"/>
    <trip id="veh275" type="veh_passenger" depart="478.65" departLane="best" departSpeed="max" from="696968696#0" to="-209323881#1"/>
    <trip id="veh276" type="veh_passenger" depart="480.39" departLane="best" from="698765560" to="-689012450#2"/>
    <trip id="veh277" type="veh_passenger" depart="482.13" departLane="best" from="19822182#1" to="381428130#8"/>
    <trip id="veh278" type="veh_passenger" depart="483.87" departLane="best" from="-1131108835" to="-154318818"/>
    <trip id="veh279" type="veh_passenger" depart="485.61" departLane="best" from="697842132" to="-381425897#7"/>
    <trip id="veh280" type="veh_passenger" depart="487.35" departLane="best" from="-56049250#8" to="-691529215"/>
    <trip id="veh282" type="veh_passenger" depart="490.83" departLane="best" from="688953178#0" to="690496990#1"/>